****BOF - gf180mcu_osu_sc_gp12t3v3__addf_1.spice

* NGSPICE file created from gf180mcu_osu_sc_gp12t3v3__addf_1.ext - technology: gf180mcuC

.subckt gf180mcu_osu_sc_gp12t3v3__addf_1 A B CI SUM CO VSS VDD
X0 a_110_111# A VDD VDD pfet_03v3 ad=0.468p pd=2.25u as=0.468p ps=2.25u w=1.7u l=0.3u
X1 SUM a_161_21# VDD VDD pfet_03v3 ad=0.85p pd=4.4u as=0.468p ps=2.25u w=1.7u l=0.3u
X2 SUM a_161_21# VSS VSS nfet_03v3 ad=0.425p pd=2.7u as=0.233p ps=1.4u w=0.85u l=0.3u
X3 VDD CI a_195_111# VDD pfet_03v3 ad=0.468p pd=2.25u as=0.468p ps=2.25u w=1.7u l=0.3u
X4 a_195_21# B a_178_21# VSS nfet_03v3 ad=0.233p pd=1.4u as=0.233p ps=1.4u w=0.85u l=0.3u
X5 a_76_111# B a_59_21# VDD pfet_03v3 ad=0.468p pd=2.25u as=0.468p ps=2.25u w=1.7u l=0.3u
X6 VDD A a_76_111# VDD pfet_03v3 ad=0.468p pd=2.25u as=0.468p ps=2.25u w=1.7u l=0.3u
X7 a_59_21# CI a_9_111# VDD pfet_03v3 ad=0.468p pd=2.25u as=0.468p ps=2.25u w=1.7u l=0.3u
X8 a_178_21# A a_161_21# VSS nfet_03v3 ad=0.233p pd=1.4u as=0.233p ps=1.4u w=0.85u l=0.3u
X9 a_9_111# B VDD VDD pfet_03v3 ad=0.468p pd=2.25u as=0.468p ps=2.25u w=1.7u l=0.3u
X10 a_110_21# CI VSS VSS nfet_03v3 ad=0.233p pd=1.4u as=0.233p ps=1.4u w=0.85u l=0.3u
X11 VDD A a_9_111# VDD pfet_03v3 ad=0.468p pd=2.25u as=0.85p ps=4.4u w=1.7u l=0.3u
X12 a_59_21# CI a_9_21# VSS nfet_03v3 ad=0.233p pd=1.4u as=0.233p ps=1.4u w=0.85u l=0.3u
X13 VSS B a_110_21# VSS nfet_03v3 ad=0.233p pd=1.4u as=0.233p ps=1.4u w=0.85u l=0.3u
X14 VSS A a_9_21# VSS nfet_03v3 ad=0.233p pd=1.4u as=0.425p ps=2.7u w=0.85u l=0.3u
X15 CO a_59_21# VSS VSS nfet_03v3 ad=0.425p pd=2.7u as=0.425p ps=2.7u w=0.85u l=0.3u
X16 VSS CI a_195_21# VSS nfet_03v3 ad=0.233p pd=1.4u as=0.233p ps=1.4u w=0.85u l=0.3u
X17 CO a_59_21# VDD VDD pfet_03v3 ad=0.85p pd=4.4u as=0.85p ps=4.4u w=1.7u l=0.3u
X18 VSS A a_76_21# VSS nfet_03v3 ad=0.233p pd=1.4u as=0.233p ps=1.4u w=0.85u l=0.3u
X19 a_161_21# a_59_21# a_110_21# VSS nfet_03v3 ad=0.233p pd=1.4u as=0.233p ps=1.4u w=0.85u l=0.3u
X20 a_76_21# B a_59_21# VSS nfet_03v3 ad=0.233p pd=1.4u as=0.233p ps=1.4u w=0.85u l=0.3u
X21 a_178_111# A a_161_21# VDD pfet_03v3 ad=0.468p pd=2.25u as=0.468p ps=2.25u w=1.7u l=0.3u
X22 a_195_111# B a_178_111# VDD pfet_03v3 ad=0.468p pd=2.25u as=0.468p ps=2.25u w=1.7u l=0.3u
X23 a_9_21# B VSS VSS nfet_03v3 ad=0.233p pd=1.4u as=0.233p ps=1.4u w=0.85u l=0.3u
X24 a_110_21# A VSS VSS nfet_03v3 ad=0.233p pd=1.4u as=0.233p ps=1.4u w=0.85u l=0.3u
X25 a_161_21# a_59_21# a_110_111# VDD pfet_03v3 ad=0.468p pd=2.25u as=0.468p ps=2.25u w=1.7u l=0.3u
X26 VDD B a_110_111# VDD pfet_03v3 ad=0.468p pd=2.25u as=0.468p ps=2.25u w=1.7u l=0.3u
X27 a_110_111# CI VDD VDD pfet_03v3 ad=0.468p pd=2.25u as=0.468p ps=2.25u w=1.7u l=0.3u
.ends



****EOF - gf180mcu_osu_sc_gp12t3v3__addf_1.spice
****BOF - gf180mcu_osu_sc_gp12t3v3__addh_1.spice

* NGSPICE file created from gf180mcu_osu_sc_gp12t3v3__addh_1.ext - technology: gf180mcuC

.subckt gf180mcu_osu_sc_gp12t3v3__addh_1 A B SUM CO VDD VSS
X0 VDD B a_19_16# VDD pfet_03v3 ad=0.85p pd=4.4u as=0.468p ps=2.25u w=1.7u l=0.3u
X1 a_19_16# A VDD VDD pfet_03v3 ad=0.468p pd=2.25u as=0.468p ps=2.25u w=1.7u l=0.3u
X2 VDD a_19_16# CO VDD pfet_03v3 ad=0.468p pd=2.25u as=0.85p ps=4.4u w=1.7u l=0.3u
X3 a_19_16# B a_42_21# VSS nfet_03v3 ad=0.425p pd=2.7u as=0.233p ps=1.4u w=0.85u l=0.3u
X4 SUM a_91_21# VSS VSS nfet_03v3 ad=0.425p pd=2.7u as=0.233p ps=1.4u w=0.85u l=0.3u
X5 VSS a_19_16# CO VSS nfet_03v3 ad=0.233p pd=1.4u as=0.425p ps=2.7u w=0.85u l=0.3u
X6 SUM a_91_21# VDD VDD pfet_03v3 ad=0.85p pd=4.4u as=0.468p ps=2.25u w=1.7u l=0.3u
X7 VDD a_19_16# a_91_21# VDD pfet_03v3 ad=0.468p pd=2.25u as=0.468p ps=2.25u w=1.7u l=0.3u
X8 a_91_21# B a_91_111# VDD pfet_03v3 ad=0.468p pd=2.25u as=0.468p ps=2.25u w=1.7u l=0.3u
X9 a_91_111# A VDD VDD pfet_03v3 ad=0.468p pd=2.25u as=0.85p ps=4.4u w=1.7u l=0.3u
X10 a_91_21# A a_75_21# VSS nfet_03v3 ad=0.233p pd=1.4u as=0.425p ps=2.7u w=0.85u l=0.3u
X11 a_42_21# A VSS VSS nfet_03v3 ad=0.233p pd=1.4u as=0.233p ps=1.4u w=0.85u l=0.3u
X12 VSS a_19_16# a_75_21# VSS nfet_03v3 ad=0.233p pd=1.4u as=0.233p ps=1.4u w=0.85u l=0.3u
X13 a_75_21# B a_91_21# VSS nfet_03v3 ad=0.233p pd=1.4u as=0.233p ps=1.4u w=0.85u l=0.3u
.ends



****EOF - gf180mcu_osu_sc_gp12t3v3__addh_1.spice
****BOF - gf180mcu_osu_sc_gp12t3v3__and2_1.spice

* NGSPICE file created from gf180mcu_osu_sc_gp12t3v3__and2_1.ext - technology: gf180mcuC

.subckt gf180mcu_osu_sc_gp12t3v3__and2_1 A B Y VDD VSS
X0 VSS B a_28_21# VSS nfet_03v3 ad=0.298p pd=1.55u as=0.105p ps=1.1u w=0.85u l=0.3u
X1 Y a_12_21# VDD VDD pfet_03v3 ad=0.85p pd=4.4u as=0.468p ps=2.25u w=1.7u l=0.3u
X2 VDD B a_12_21# VDD pfet_03v3 ad=0.468p pd=2.25u as=0.468p ps=2.25u w=1.7u l=0.3u
X3 a_12_21# A VDD VDD pfet_03v3 ad=0.468p pd=2.25u as=0.85p ps=4.4u w=1.7u l=0.3u
X4 Y a_12_21# VSS VSS nfet_03v3 ad=0.425p pd=2.7u as=0.298p ps=1.55u w=0.85u l=0.3u
X5 a_28_21# A a_12_21# VSS nfet_03v3 ad=0.105p pd=1.1u as=0.425p ps=2.7u w=0.85u l=0.3u
.ends



****EOF - gf180mcu_osu_sc_gp12t3v3__and2_1.spice
****BOF - gf180mcu_osu_sc_gp12t3v3__aoi21_1.spice

* NGSPICE file created from gf180mcu_osu_sc_gp12t3v3__aoi21_1.ext - technology: gf180mcuC

.subckt gf180mcu_osu_sc_gp12t3v3__aoi21_1 A0 A1 B Y VDD VSS
X0 Y A1 a_28_21# VSS nfet_03v3 ad=0.233p pd=1.4u as=0.105p ps=1.1u w=0.85u l=0.3u
X1 Y B a_9_111# VDD pfet_03v3 ad=0.85p pd=4.4u as=0.468p ps=2.25u w=1.7u l=0.3u
X2 a_9_111# A1 VDD VDD pfet_03v3 ad=0.468p pd=2.25u as=0.468p ps=2.25u w=1.7u l=0.3u
X3 VDD A0 a_9_111# VDD pfet_03v3 ad=0.468p pd=2.25u as=0.85p ps=4.4u w=1.7u l=0.3u
X4 VSS B Y VSS nfet_03v3 ad=0.425p pd=2.7u as=0.233p ps=1.4u w=0.85u l=0.3u
X5 a_28_21# A0 VSS VSS nfet_03v3 ad=0.105p pd=1.1u as=0.425p ps=2.7u w=0.85u l=0.3u
.ends



****EOF - gf180mcu_osu_sc_gp12t3v3__aoi21_1.spice
****BOF - gf180mcu_osu_sc_gp12t3v3__aoi22_1.spice

* NGSPICE file created from gf180mcu_osu_sc_gp12t3v3__aoi22_1.ext - technology: gf180mcuC

.subckt gf180mcu_osu_sc_gp12t3v3__aoi22_1 A1 A0 B0 B1 Y VDD VSS
X0 Y A1 a_28_21# VSS nfet_03v3 ad=0.233p pd=1.4u as=0.105p ps=1.1u w=0.85u l=0.3u
X1 a_9_111# B1 Y VDD pfet_03v3 ad=0.85p pd=4.4u as=0.468p ps=2.25u w=1.7u l=0.3u
X2 Y B0 a_9_111# VDD pfet_03v3 ad=0.468p pd=2.25u as=0.468p ps=2.25u w=1.7u l=0.3u
X3 a_9_111# A1 VDD VDD pfet_03v3 ad=0.468p pd=2.25u as=0.468p ps=2.25u w=1.7u l=0.3u
X4 VDD A0 a_9_111# VDD pfet_03v3 ad=0.468p pd=2.25u as=0.85p ps=4.4u w=1.7u l=0.3u
X5 a_56_21# B0 Y VSS nfet_03v3 ad=0.105p pd=1.1u as=0.233p ps=1.4u w=0.85u l=0.3u
X6 VSS B1 a_56_21# VSS nfet_03v3 ad=0.425p pd=2.7u as=0.105p ps=1.1u w=0.85u l=0.3u
X7 a_28_21# A0 VSS VSS nfet_03v3 ad=0.105p pd=1.1u as=0.425p ps=2.7u w=0.85u l=0.3u
.ends



****EOF - gf180mcu_osu_sc_gp12t3v3__aoi22_1.spice
****BOF - gf180mcu_osu_sc_gp12t3v3__buf_1.spice

* NGSPICE file created from gf180mcu_osu_sc_gp12t3v3__buf_1.ext - technology: gf180mcuC

.subckt gf180mcu_osu_sc_gp12t3v3__buf_1 A Y VDD VSS
X0 Y a_9_21# VDD VDD pfet_03v3 ad=0.85p pd=4.4u as=0.468p ps=2.25u w=1.7u l=0.3u
X1 VDD A a_9_21# VDD pfet_03v3 ad=0.468p pd=2.25u as=0.85p ps=4.4u w=1.7u l=0.3u
X2 VSS A a_9_21# VSS nfet_03v3 ad=0.233p pd=1.4u as=0.425p ps=2.7u w=0.85u l=0.3u
X3 Y a_9_21# VSS VSS nfet_03v3 ad=0.425p pd=2.7u as=0.233p ps=1.4u w=0.85u l=0.3u
.ends



****EOF - gf180mcu_osu_sc_gp12t3v3__buf_1.spice
****BOF - gf180mcu_osu_sc_gp12t3v3__buf_16.spice

* NGSPICE file created from gf180mcu_osu_sc_gp12t3v3__buf_16.ext - technology: gf180mcuC

.subckt gf180mcu_osu_sc_gp12t3v3__buf_16 A Y VDD VSS
X0 Y a_9_21# VDD VDD pfet_03v3 ad=0.468p pd=2.25u as=0.468p ps=2.25u w=1.7u l=0.3u
X1 VDD a_9_21# Y VDD pfet_03v3 ad=0.468p pd=2.25u as=0.468p ps=2.25u w=1.7u l=0.3u
X2 Y a_9_21# VDD VDD pfet_03v3 ad=0.468p pd=2.25u as=0.468p ps=2.25u w=1.7u l=0.3u
X3 VDD a_9_21# Y VDD pfet_03v3 ad=0.468p pd=2.25u as=0.468p ps=2.25u w=1.7u l=0.3u
X4 VSS a_9_21# Y VSS nfet_03v3 ad=0.233p pd=1.4u as=0.233p ps=1.4u w=0.85u l=0.3u
X5 Y a_9_21# VDD VDD pfet_03v3 ad=0.468p pd=2.25u as=0.468p ps=2.25u w=1.7u l=0.3u
X6 VSS a_9_21# Y VSS nfet_03v3 ad=0.233p pd=1.4u as=0.233p ps=1.4u w=0.85u l=0.3u
X7 Y a_9_21# VDD VDD pfet_03v3 ad=0.468p pd=2.25u as=0.468p ps=2.25u w=1.7u l=0.3u
X8 VDD a_9_21# Y VDD pfet_03v3 ad=0.468p pd=2.25u as=0.468p ps=2.25u w=1.7u l=0.3u
X9 VDD a_9_21# Y VDD pfet_03v3 ad=0.468p pd=2.25u as=0.468p ps=2.25u w=1.7u l=0.3u
X10 Y a_9_21# VSS VSS nfet_03v3 ad=0.233p pd=1.4u as=0.233p ps=1.4u w=0.85u l=0.3u
X11 Y a_9_21# VDD VDD pfet_03v3 ad=0.468p pd=2.25u as=0.468p ps=2.25u w=1.7u l=0.3u
X12 Y a_9_21# VSS VSS nfet_03v3 ad=0.233p pd=1.4u as=0.233p ps=1.4u w=0.85u l=0.3u
X13 VDD A a_9_21# VDD pfet_03v3 ad=0.468p pd=2.25u as=0.85p ps=4.4u w=1.7u l=0.3u
X14 VSS a_9_21# Y VSS nfet_03v3 ad=0.425p pd=2.7u as=0.233p ps=1.4u w=0.85u l=0.3u
X15 VSS a_9_21# Y VSS nfet_03v3 ad=0.233p pd=1.4u as=0.233p ps=1.4u w=0.85u l=0.3u
X16 VSS a_9_21# Y VSS nfet_03v3 ad=0.233p pd=1.4u as=0.233p ps=1.4u w=0.85u l=0.3u
X17 VSS A a_9_21# VSS nfet_03v3 ad=0.233p pd=1.4u as=0.425p ps=2.7u w=0.85u l=0.3u
X18 VSS a_9_21# Y VSS nfet_03v3 ad=0.233p pd=1.4u as=0.233p ps=1.4u w=0.85u l=0.3u
X19 Y a_9_21# VSS VSS nfet_03v3 ad=0.233p pd=1.4u as=0.233p ps=1.4u w=0.85u l=0.3u
X20 Y a_9_21# VSS VSS nfet_03v3 ad=0.233p pd=1.4u as=0.233p ps=1.4u w=0.85u l=0.3u
X21 VSS a_9_21# Y VSS nfet_03v3 ad=0.233p pd=1.4u as=0.233p ps=1.4u w=0.85u l=0.3u
X22 VSS a_9_21# Y VSS nfet_03v3 ad=0.233p pd=1.4u as=0.233p ps=1.4u w=0.85u l=0.3u
X23 Y a_9_21# VSS VSS nfet_03v3 ad=0.233p pd=1.4u as=0.233p ps=1.4u w=0.85u l=0.3u
X24 Y a_9_21# VDD VDD pfet_03v3 ad=0.468p pd=2.25u as=0.468p ps=2.25u w=1.7u l=0.3u
X25 VDD a_9_21# Y VDD pfet_03v3 ad=0.468p pd=2.25u as=0.468p ps=2.25u w=1.7u l=0.3u
X26 VDD a_9_21# Y VDD pfet_03v3 ad=0.85p pd=4.4u as=0.468p ps=2.25u w=1.7u l=0.3u
X27 Y a_9_21# VSS VSS nfet_03v3 ad=0.233p pd=1.4u as=0.233p ps=1.4u w=0.85u l=0.3u
X28 Y a_9_21# VSS VSS nfet_03v3 ad=0.233p pd=1.4u as=0.233p ps=1.4u w=0.85u l=0.3u
X29 Y a_9_21# VSS VSS nfet_03v3 ad=0.233p pd=1.4u as=0.233p ps=1.4u w=0.85u l=0.3u
X30 VDD a_9_21# Y VDD pfet_03v3 ad=0.468p pd=2.25u as=0.468p ps=2.25u w=1.7u l=0.3u
X31 Y a_9_21# VDD VDD pfet_03v3 ad=0.468p pd=2.25u as=0.468p ps=2.25u w=1.7u l=0.3u
X32 VDD a_9_21# Y VDD pfet_03v3 ad=0.468p pd=2.25u as=0.468p ps=2.25u w=1.7u l=0.3u
X33 Y a_9_21# VDD VDD pfet_03v3 ad=0.468p pd=2.25u as=0.468p ps=2.25u w=1.7u l=0.3u
.ends



****EOF - gf180mcu_osu_sc_gp12t3v3__buf_16.spice
****BOF - gf180mcu_osu_sc_gp12t3v3__buf_2.spice

* NGSPICE file created from gf180mcu_osu_sc_gp12t3v3__buf_2.ext - technology: gf180mcuC

.subckt gf180mcu_osu_sc_gp12t3v3__buf_2 A Y VDD VSS
X0 VDD a_9_21# Y VDD pfet_03v3 ad=0.85p pd=4.4u as=0.468p ps=2.25u w=1.7u l=0.3u
X1 Y a_9_21# VDD VDD pfet_03v3 ad=0.468p pd=2.25u as=0.468p ps=2.25u w=1.7u l=0.3u
X2 VDD A a_9_21# VDD pfet_03v3 ad=0.468p pd=2.25u as=0.85p ps=4.4u w=1.7u l=0.3u
X3 VSS a_9_21# Y VSS nfet_03v3 ad=0.425p pd=2.7u as=0.233p ps=1.4u w=0.85u l=0.3u
X4 VSS A a_9_21# VSS nfet_03v3 ad=0.233p pd=1.4u as=0.425p ps=2.7u w=0.85u l=0.3u
X5 Y a_9_21# VSS VSS nfet_03v3 ad=0.233p pd=1.4u as=0.233p ps=1.4u w=0.85u l=0.3u
.ends



****EOF - gf180mcu_osu_sc_gp12t3v3__buf_2.spice
****BOF - gf180mcu_osu_sc_gp12t3v3__buf_4.spice

* NGSPICE file created from gf180mcu_osu_sc_gp12t3v3__buf_4.ext - technology: gf180mcuC

.subckt gf180mcu_osu_sc_gp12t3v3__buf_4 A Y VDD VSS
X0 Y a_9_21# VDD VDD pfet_03v3 ad=0.468p pd=2.25u as=0.468p ps=2.25u w=1.7u l=0.3u
X1 VDD a_9_21# Y VDD pfet_03v3 ad=0.85p pd=4.4u as=0.468p ps=2.25u w=1.7u l=0.3u
X2 VDD a_9_21# Y VDD pfet_03v3 ad=0.468p pd=2.25u as=0.468p ps=2.25u w=1.7u l=0.3u
X3 Y a_9_21# VDD VDD pfet_03v3 ad=0.468p pd=2.25u as=0.468p ps=2.25u w=1.7u l=0.3u
X4 VDD A a_9_21# VDD pfet_03v3 ad=0.468p pd=2.25u as=0.85p ps=4.4u w=1.7u l=0.3u
X5 VSS a_9_21# Y VSS nfet_03v3 ad=0.233p pd=1.4u as=0.233p ps=1.4u w=0.85u l=0.3u
X6 VSS A a_9_21# VSS nfet_03v3 ad=0.233p pd=1.4u as=0.425p ps=2.7u w=0.85u l=0.3u
X7 VSS a_9_21# Y VSS nfet_03v3 ad=0.425p pd=2.7u as=0.233p ps=1.4u w=0.85u l=0.3u
X8 Y a_9_21# VSS VSS nfet_03v3 ad=0.233p pd=1.4u as=0.233p ps=1.4u w=0.85u l=0.3u
X9 Y a_9_21# VSS VSS nfet_03v3 ad=0.233p pd=1.4u as=0.233p ps=1.4u w=0.85u l=0.3u
.ends



****EOF - gf180mcu_osu_sc_gp12t3v3__buf_4.spice
****BOF - gf180mcu_osu_sc_gp12t3v3__buf_8.spice

* NGSPICE file created from gf180mcu_osu_sc_gp12t3v3__buf_8.ext - technology: gf180mcuC

.subckt gf180mcu_osu_sc_gp12t3v3__buf_8 A Y VDD VSS
X0 Y a_9_21# VDD VDD pfet_03v3 ad=0.468p pd=2.25u as=0.468p ps=2.25u w=1.7u l=0.3u
X1 Y a_9_21# VDD VDD pfet_03v3 ad=0.468p pd=2.25u as=0.468p ps=2.25u w=1.7u l=0.3u
X2 VDD a_9_21# Y VDD pfet_03v3 ad=0.468p pd=2.25u as=0.468p ps=2.25u w=1.7u l=0.3u
X3 VDD a_9_21# Y VDD pfet_03v3 ad=0.468p pd=2.25u as=0.468p ps=2.25u w=1.7u l=0.3u
X4 Y a_9_21# VDD VDD pfet_03v3 ad=0.468p pd=2.25u as=0.468p ps=2.25u w=1.7u l=0.3u
X5 Y a_9_21# VSS VSS nfet_03v3 ad=0.233p pd=1.4u as=0.233p ps=1.4u w=0.85u l=0.3u
X6 VDD A a_9_21# VDD pfet_03v3 ad=0.468p pd=2.25u as=0.85p ps=4.4u w=1.7u l=0.3u
X7 VSS a_9_21# Y VSS nfet_03v3 ad=0.233p pd=1.4u as=0.233p ps=1.4u w=0.85u l=0.3u
X8 VSS a_9_21# Y VSS nfet_03v3 ad=0.233p pd=1.4u as=0.233p ps=1.4u w=0.85u l=0.3u
X9 VSS A a_9_21# VSS nfet_03v3 ad=0.233p pd=1.4u as=0.425p ps=2.7u w=0.85u l=0.3u
X10 VSS a_9_21# Y VSS nfet_03v3 ad=0.233p pd=1.4u as=0.233p ps=1.4u w=0.85u l=0.3u
X11 VSS a_9_21# Y VSS nfet_03v3 ad=0.425p pd=2.7u as=0.233p ps=1.4u w=0.85u l=0.3u
X12 Y a_9_21# VSS VSS nfet_03v3 ad=0.233p pd=1.4u as=0.233p ps=1.4u w=0.85u l=0.3u
X13 Y a_9_21# VSS VSS nfet_03v3 ad=0.233p pd=1.4u as=0.233p ps=1.4u w=0.85u l=0.3u
X14 Y a_9_21# VSS VSS nfet_03v3 ad=0.233p pd=1.4u as=0.233p ps=1.4u w=0.85u l=0.3u
X15 VDD a_9_21# Y VDD pfet_03v3 ad=0.85p pd=4.4u as=0.468p ps=2.25u w=1.7u l=0.3u
X16 VDD a_9_21# Y VDD pfet_03v3 ad=0.468p pd=2.25u as=0.468p ps=2.25u w=1.7u l=0.3u
X17 Y a_9_21# VDD VDD pfet_03v3 ad=0.468p pd=2.25u as=0.468p ps=2.25u w=1.7u l=0.3u
.ends



****EOF - gf180mcu_osu_sc_gp12t3v3__buf_8.spice
****BOF - gf180mcu_osu_sc_gp12t3v3__clkbuf_1.spice

* NGSPICE file created from gf180mcu_osu_sc_gp12t3v3__clkbuf_1.ext - technology: gf180mcuC

.subckt gf180mcu_osu_sc_gp12t3v3__clkbuf_1 A Y VDD VSS
X0 Y a_9_21# VDD VDD pfet_03v3 ad=0.85p pd=4.4u as=0.468p ps=2.25u w=1.7u l=0.3u
X1 VDD A a_9_21# VDD pfet_03v3 ad=0.468p pd=2.25u as=0.85p ps=4.4u w=1.7u l=0.3u
X2 VSS A a_9_21# VSS nfet_03v3 ad=0.233p pd=1.4u as=0.425p ps=2.7u w=0.85u l=0.3u
X3 Y a_9_21# VSS VSS nfet_03v3 ad=0.425p pd=2.7u as=0.233p ps=1.4u w=0.85u l=0.3u
.ends



****EOF - gf180mcu_osu_sc_gp12t3v3__clkbuf_1.spice
****BOF - gf180mcu_osu_sc_gp12t3v3__clkbuf_16.spice

* NGSPICE file created from gf180mcu_osu_sc_gp12t3v3__clkbuf_16.ext - technology: gf180mcuC

.subckt gf180mcu_osu_sc_gp12t3v3__clkbuf_16 A Y VDD VSS
X0 Y a_9_21# VDD VDD pfet_03v3 ad=0.468p pd=2.25u as=0.468p ps=2.25u w=1.7u l=0.3u
X1 VDD a_9_21# Y VDD pfet_03v3 ad=0.468p pd=2.25u as=0.468p ps=2.25u w=1.7u l=0.3u
X2 Y a_9_21# VDD VDD pfet_03v3 ad=0.468p pd=2.25u as=0.468p ps=2.25u w=1.7u l=0.3u
X3 VDD a_9_21# Y VDD pfet_03v3 ad=0.468p pd=2.25u as=0.468p ps=2.25u w=1.7u l=0.3u
X4 VSS a_9_21# Y VSS nfet_03v3 ad=0.233p pd=1.4u as=0.233p ps=1.4u w=0.85u l=0.3u
X5 Y a_9_21# VDD VDD pfet_03v3 ad=0.468p pd=2.25u as=0.468p ps=2.25u w=1.7u l=0.3u
X6 VSS a_9_21# Y VSS nfet_03v3 ad=0.233p pd=1.4u as=0.233p ps=1.4u w=0.85u l=0.3u
X7 Y a_9_21# VDD VDD pfet_03v3 ad=0.468p pd=2.25u as=0.468p ps=2.25u w=1.7u l=0.3u
X8 VDD a_9_21# Y VDD pfet_03v3 ad=0.468p pd=2.25u as=0.468p ps=2.25u w=1.7u l=0.3u
X9 VDD a_9_21# Y VDD pfet_03v3 ad=0.468p pd=2.25u as=0.468p ps=2.25u w=1.7u l=0.3u
X10 Y a_9_21# VSS VSS nfet_03v3 ad=0.233p pd=1.4u as=0.233p ps=1.4u w=0.85u l=0.3u
X11 Y a_9_21# VDD VDD pfet_03v3 ad=0.468p pd=2.25u as=0.468p ps=2.25u w=1.7u l=0.3u
X12 Y a_9_21# VSS VSS nfet_03v3 ad=0.233p pd=1.4u as=0.233p ps=1.4u w=0.85u l=0.3u
X13 VDD A a_9_21# VDD pfet_03v3 ad=0.468p pd=2.25u as=0.85p ps=4.4u w=1.7u l=0.3u
X14 VSS a_9_21# Y VSS nfet_03v3 ad=0.425p pd=2.7u as=0.233p ps=1.4u w=0.85u l=0.3u
X15 VSS a_9_21# Y VSS nfet_03v3 ad=0.233p pd=1.4u as=0.233p ps=1.4u w=0.85u l=0.3u
X16 VSS a_9_21# Y VSS nfet_03v3 ad=0.233p pd=1.4u as=0.233p ps=1.4u w=0.85u l=0.3u
X17 VSS A a_9_21# VSS nfet_03v3 ad=0.233p pd=1.4u as=0.425p ps=2.7u w=0.85u l=0.3u
X18 VSS a_9_21# Y VSS nfet_03v3 ad=0.233p pd=1.4u as=0.233p ps=1.4u w=0.85u l=0.3u
X19 Y a_9_21# VSS VSS nfet_03v3 ad=0.233p pd=1.4u as=0.233p ps=1.4u w=0.85u l=0.3u
X20 Y a_9_21# VSS VSS nfet_03v3 ad=0.233p pd=1.4u as=0.233p ps=1.4u w=0.85u l=0.3u
X21 VSS a_9_21# Y VSS nfet_03v3 ad=0.233p pd=1.4u as=0.233p ps=1.4u w=0.85u l=0.3u
X22 VSS a_9_21# Y VSS nfet_03v3 ad=0.233p pd=1.4u as=0.233p ps=1.4u w=0.85u l=0.3u
X23 Y a_9_21# VSS VSS nfet_03v3 ad=0.233p pd=1.4u as=0.233p ps=1.4u w=0.85u l=0.3u
X24 Y a_9_21# VDD VDD pfet_03v3 ad=0.468p pd=2.25u as=0.468p ps=2.25u w=1.7u l=0.3u
X25 VDD a_9_21# Y VDD pfet_03v3 ad=0.468p pd=2.25u as=0.468p ps=2.25u w=1.7u l=0.3u
X26 VDD a_9_21# Y VDD pfet_03v3 ad=0.85p pd=4.4u as=0.468p ps=2.25u w=1.7u l=0.3u
X27 Y a_9_21# VSS VSS nfet_03v3 ad=0.233p pd=1.4u as=0.233p ps=1.4u w=0.85u l=0.3u
X28 Y a_9_21# VSS VSS nfet_03v3 ad=0.233p pd=1.4u as=0.233p ps=1.4u w=0.85u l=0.3u
X29 Y a_9_21# VSS VSS nfet_03v3 ad=0.233p pd=1.4u as=0.233p ps=1.4u w=0.85u l=0.3u
X30 VDD a_9_21# Y VDD pfet_03v3 ad=0.468p pd=2.25u as=0.468p ps=2.25u w=1.7u l=0.3u
X31 Y a_9_21# VDD VDD pfet_03v3 ad=0.468p pd=2.25u as=0.468p ps=2.25u w=1.7u l=0.3u
X32 VDD a_9_21# Y VDD pfet_03v3 ad=0.468p pd=2.25u as=0.468p ps=2.25u w=1.7u l=0.3u
X33 Y a_9_21# VDD VDD pfet_03v3 ad=0.468p pd=2.25u as=0.468p ps=2.25u w=1.7u l=0.3u
.ends



****EOF - gf180mcu_osu_sc_gp12t3v3__clkbuf_16.spice
****BOF - gf180mcu_osu_sc_gp12t3v3__clkbuf_2.spice

* NGSPICE file created from gf180mcu_osu_sc_gp12t3v3__clkbuf_2.ext - technology: gf180mcuC

.subckt gf180mcu_osu_sc_gp12t3v3__clkbuf_2 A Y VDD VSS
X0 VDD a_9_21# Y VDD pfet_03v3 ad=0.85p pd=4.4u as=0.468p ps=2.25u w=1.7u l=0.3u
X1 Y a_9_21# VDD VDD pfet_03v3 ad=0.468p pd=2.25u as=0.468p ps=2.25u w=1.7u l=0.3u
X2 VDD A a_9_21# VDD pfet_03v3 ad=0.468p pd=2.25u as=0.85p ps=4.4u w=1.7u l=0.3u
X3 VSS a_9_21# Y VSS nfet_03v3 ad=0.425p pd=2.7u as=0.233p ps=1.4u w=0.85u l=0.3u
X4 VSS A a_9_21# VSS nfet_03v3 ad=0.233p pd=1.4u as=0.425p ps=2.7u w=0.85u l=0.3u
X5 Y a_9_21# VSS VSS nfet_03v3 ad=0.233p pd=1.4u as=0.233p ps=1.4u w=0.85u l=0.3u
.ends



****EOF - gf180mcu_osu_sc_gp12t3v3__clkbuf_2.spice
****BOF - gf180mcu_osu_sc_gp12t3v3__clkbuf_4.spice

* NGSPICE file created from gf180mcu_osu_sc_gp12t3v3__clkbuf_4.ext - technology: gf180mcuC

.subckt gf180mcu_osu_sc_gp12t3v3__clkbuf_4 A Y VDD VSS
X0 Y a_9_21# VDD VDD pfet_03v3 ad=0.468p pd=2.25u as=0.468p ps=2.25u w=1.7u l=0.3u
X1 VDD a_9_21# Y VDD pfet_03v3 ad=0.85p pd=4.4u as=0.468p ps=2.25u w=1.7u l=0.3u
X2 VDD a_9_21# Y VDD pfet_03v3 ad=0.468p pd=2.25u as=0.468p ps=2.25u w=1.7u l=0.3u
X3 Y a_9_21# VDD VDD pfet_03v3 ad=0.468p pd=2.25u as=0.468p ps=2.25u w=1.7u l=0.3u
X4 VDD A a_9_21# VDD pfet_03v3 ad=0.468p pd=2.25u as=0.85p ps=4.4u w=1.7u l=0.3u
X5 VSS a_9_21# Y VSS nfet_03v3 ad=0.233p pd=1.4u as=0.233p ps=1.4u w=0.85u l=0.3u
X6 VSS A a_9_21# VSS nfet_03v3 ad=0.233p pd=1.4u as=0.425p ps=2.7u w=0.85u l=0.3u
X7 VSS a_9_21# Y VSS nfet_03v3 ad=0.425p pd=2.7u as=0.233p ps=1.4u w=0.85u l=0.3u
X8 Y a_9_21# VSS VSS nfet_03v3 ad=0.233p pd=1.4u as=0.233p ps=1.4u w=0.85u l=0.3u
X9 Y a_9_21# VSS VSS nfet_03v3 ad=0.233p pd=1.4u as=0.233p ps=1.4u w=0.85u l=0.3u
.ends



****EOF - gf180mcu_osu_sc_gp12t3v3__clkbuf_4.spice
****BOF - gf180mcu_osu_sc_gp12t3v3__clkbuf_8.spice

* NGSPICE file created from gf180mcu_osu_sc_gp12t3v3__clkbuf_8.ext - technology: gf180mcuC

.subckt gf180mcu_osu_sc_gp12t3v3__clkbuf_8 A Y VDD VSS
X0 Y a_9_21# VDD VDD pfet_03v3 ad=0.468p pd=2.25u as=0.468p ps=2.25u w=1.7u l=0.3u
X1 Y a_9_21# VDD VDD pfet_03v3 ad=0.468p pd=2.25u as=0.468p ps=2.25u w=1.7u l=0.3u
X2 VDD a_9_21# Y VDD pfet_03v3 ad=0.468p pd=2.25u as=0.468p ps=2.25u w=1.7u l=0.3u
X3 VDD a_9_21# Y VDD pfet_03v3 ad=0.468p pd=2.25u as=0.468p ps=2.25u w=1.7u l=0.3u
X4 Y a_9_21# VDD VDD pfet_03v3 ad=0.468p pd=2.25u as=0.468p ps=2.25u w=1.7u l=0.3u
X5 Y a_9_21# VSS VSS nfet_03v3 ad=0.233p pd=1.4u as=0.233p ps=1.4u w=0.85u l=0.3u
X6 VDD A a_9_21# VDD pfet_03v3 ad=0.468p pd=2.25u as=0.85p ps=4.4u w=1.7u l=0.3u
X7 VSS a_9_21# Y VSS nfet_03v3 ad=0.233p pd=1.4u as=0.233p ps=1.4u w=0.85u l=0.3u
X8 VSS a_9_21# Y VSS nfet_03v3 ad=0.233p pd=1.4u as=0.233p ps=1.4u w=0.85u l=0.3u
X9 VSS A a_9_21# VSS nfet_03v3 ad=0.233p pd=1.4u as=0.425p ps=2.7u w=0.85u l=0.3u
X10 VSS a_9_21# Y VSS nfet_03v3 ad=0.233p pd=1.4u as=0.233p ps=1.4u w=0.85u l=0.3u
X11 VSS a_9_21# Y VSS nfet_03v3 ad=0.425p pd=2.7u as=0.233p ps=1.4u w=0.85u l=0.3u
X12 Y a_9_21# VSS VSS nfet_03v3 ad=0.233p pd=1.4u as=0.233p ps=1.4u w=0.85u l=0.3u
X13 Y a_9_21# VSS VSS nfet_03v3 ad=0.233p pd=1.4u as=0.233p ps=1.4u w=0.85u l=0.3u
X14 Y a_9_21# VSS VSS nfet_03v3 ad=0.233p pd=1.4u as=0.233p ps=1.4u w=0.85u l=0.3u
X15 VDD a_9_21# Y VDD pfet_03v3 ad=0.85p pd=4.4u as=0.468p ps=2.25u w=1.7u l=0.3u
X16 VDD a_9_21# Y VDD pfet_03v3 ad=0.468p pd=2.25u as=0.468p ps=2.25u w=1.7u l=0.3u
X17 Y a_9_21# VDD VDD pfet_03v3 ad=0.468p pd=2.25u as=0.468p ps=2.25u w=1.7u l=0.3u
.ends



****EOF - gf180mcu_osu_sc_gp12t3v3__clkbuf_8.spice
****BOF - gf180mcu_osu_sc_gp12t3v3__clkinv_1.spice

* NGSPICE file created from gf180mcu_osu_sc_gp12t3v3__clkinv_1.ext - technology: gf180mcuC

.subckt gf180mcu_osu_sc_gp12t3v3__clkinv_1 A Y VDD VSS
X0 Y A VDD VDD pfet_03v3 ad=0.85p pd=4.4u as=0.85p ps=4.4u w=1.7u l=0.3u
X1 Y A VSS VSS nfet_03v3 ad=0.425p pd=2.7u as=0.425p ps=2.7u w=0.85u l=0.3u
.ends



****EOF - gf180mcu_osu_sc_gp12t3v3__clkinv_1.spice
****BOF - gf180mcu_osu_sc_gp12t3v3__clkinv_16.spice

* NGSPICE file created from gf180mcu_osu_sc_gp12t3v3__clkinv_16.ext - technology: gf180mcuC

.subckt gf180mcu_osu_sc_gp12t3v3__clkinv_16 A Y VDD VSS
X0 VDD A Y VDD pfet_03v3 ad=0.468p pd=2.25u as=0.468p ps=2.25u w=1.7u l=0.3u
X1 Y A VDD VDD pfet_03v3 ad=0.468p pd=2.25u as=0.468p ps=2.25u w=1.7u l=0.3u
X2 VDD A Y VDD pfet_03v3 ad=0.468p pd=2.25u as=0.468p ps=2.25u w=1.7u l=0.3u
X3 Y A VDD VDD pfet_03v3 ad=0.468p pd=2.25u as=0.468p ps=2.25u w=1.7u l=0.3u
X4 Y A VSS VSS nfet_03v3 ad=0.233p pd=1.4u as=0.233p ps=1.4u w=0.85u l=0.3u
X5 VDD A Y VDD pfet_03v3 ad=0.468p pd=2.25u as=0.468p ps=2.25u w=1.7u l=0.3u
X6 Y A VSS VSS nfet_03v3 ad=0.233p pd=1.4u as=0.233p ps=1.4u w=0.85u l=0.3u
X7 VDD A Y VDD pfet_03v3 ad=0.468p pd=2.25u as=0.468p ps=2.25u w=1.7u l=0.3u
X8 Y A VDD VDD pfet_03v3 ad=0.468p pd=2.25u as=0.468p ps=2.25u w=1.7u l=0.3u
X9 Y A VDD VDD pfet_03v3 ad=0.468p pd=2.25u as=0.468p ps=2.25u w=1.7u l=0.3u
X10 VSS A Y VSS nfet_03v3 ad=0.233p pd=1.4u as=0.233p ps=1.4u w=0.85u l=0.3u
X11 VDD A Y VDD pfet_03v3 ad=0.468p pd=2.25u as=0.468p ps=2.25u w=1.7u l=0.3u
X12 VSS A Y VSS nfet_03v3 ad=0.233p pd=1.4u as=0.233p ps=1.4u w=0.85u l=0.3u
X13 Y A VDD VDD pfet_03v3 ad=0.468p pd=2.25u as=0.85p ps=4.4u w=1.7u l=0.3u
X14 Y A VSS VSS nfet_03v3 ad=0.233p pd=1.4u as=0.233p ps=1.4u w=0.85u l=0.3u
X15 Y A VSS VSS nfet_03v3 ad=0.233p pd=1.4u as=0.233p ps=1.4u w=0.85u l=0.3u
X16 Y A VSS VSS nfet_03v3 ad=0.233p pd=1.4u as=0.425p ps=2.7u w=0.85u l=0.3u
X17 Y A VSS VSS nfet_03v3 ad=0.233p pd=1.4u as=0.233p ps=1.4u w=0.85u l=0.3u
X18 VSS A Y VSS nfet_03v3 ad=0.233p pd=1.4u as=0.233p ps=1.4u w=0.85u l=0.3u
X19 VSS A Y VSS nfet_03v3 ad=0.233p pd=1.4u as=0.233p ps=1.4u w=0.85u l=0.3u
X20 Y A VSS VSS nfet_03v3 ad=0.233p pd=1.4u as=0.233p ps=1.4u w=0.85u l=0.3u
X21 Y A VSS VSS nfet_03v3 ad=0.233p pd=1.4u as=0.233p ps=1.4u w=0.85u l=0.3u
X22 VSS A Y VSS nfet_03v3 ad=0.233p pd=1.4u as=0.233p ps=1.4u w=0.85u l=0.3u
X23 VDD A Y VDD pfet_03v3 ad=0.468p pd=2.25u as=0.468p ps=2.25u w=1.7u l=0.3u
X24 Y A VDD VDD pfet_03v3 ad=0.468p pd=2.25u as=0.468p ps=2.25u w=1.7u l=0.3u
X25 VSS A Y VSS nfet_03v3 ad=0.233p pd=1.4u as=0.233p ps=1.4u w=0.85u l=0.3u
X26 VSS A Y VSS nfet_03v3 ad=0.233p pd=1.4u as=0.233p ps=1.4u w=0.85u l=0.3u
X27 VSS A Y VSS nfet_03v3 ad=0.425p pd=2.7u as=0.233p ps=1.4u w=0.85u l=0.3u
X28 Y A VDD VDD pfet_03v3 ad=0.468p pd=2.25u as=0.468p ps=2.25u w=1.7u l=0.3u
X29 VDD A Y VDD pfet_03v3 ad=0.85p pd=4.4u as=0.468p ps=2.25u w=1.7u l=0.3u
X30 Y A VDD VDD pfet_03v3 ad=0.468p pd=2.25u as=0.468p ps=2.25u w=1.7u l=0.3u
X31 VDD A Y VDD pfet_03v3 ad=0.468p pd=2.25u as=0.468p ps=2.25u w=1.7u l=0.3u
.ends



****EOF - gf180mcu_osu_sc_gp12t3v3__clkinv_16.spice
****BOF - gf180mcu_osu_sc_gp12t3v3__clkinv_2.spice

* NGSPICE file created from gf180mcu_osu_sc_gp12t3v3__clkinv_2.ext - technology: gf180mcuC

.subckt gf180mcu_osu_sc_gp12t3v3__clkinv_2 A Y VDD VSS
X0 VDD A Y VDD pfet_03v3 ad=0.935p pd=4.5u as=0.468p ps=2.25u w=1.7u l=0.3u
X1 Y A VDD VDD pfet_03v3 ad=0.468p pd=2.25u as=0.85p ps=4.4u w=1.7u l=0.3u
X2 Y A VSS VSS nfet_03v3 ad=0.233p pd=1.4u as=0.425p ps=2.7u w=0.85u l=0.3u
X3 VSS A Y VSS nfet_03v3 ad=0.425p pd=2.7u as=0.233p ps=1.4u w=0.85u l=0.3u
.ends



****EOF - gf180mcu_osu_sc_gp12t3v3__clkinv_2.spice
****BOF - gf180mcu_osu_sc_gp12t3v3__clkinv_4.spice

* NGSPICE file created from gf180mcu_osu_sc_gp12t3v3__clkinv_4.ext - technology: gf180mcuC

.subckt gf180mcu_osu_sc_gp12t3v3__clkinv_4 A Y VDD VSS
X0 VDD A Y VDD pfet_03v3 ad=0.85p pd=4.4u as=0.468p ps=2.25u w=1.7u l=0.3u
X1 Y A VDD VDD pfet_03v3 ad=0.468p pd=2.25u as=0.468p ps=2.25u w=1.7u l=0.3u
X2 VDD A Y VDD pfet_03v3 ad=0.468p pd=2.25u as=0.468p ps=2.25u w=1.7u l=0.3u
X3 Y A VDD VDD pfet_03v3 ad=0.468p pd=2.25u as=0.85p ps=4.4u w=1.7u l=0.3u
X4 Y A VSS VSS nfet_03v3 ad=0.233p pd=1.4u as=0.233p ps=1.4u w=0.85u l=0.3u
X5 Y A VSS VSS nfet_03v3 ad=0.233p pd=1.4u as=0.425p ps=2.7u w=0.85u l=0.3u
X6 VSS A Y VSS nfet_03v3 ad=0.425p pd=2.7u as=0.233p ps=1.4u w=0.85u l=0.3u
X7 VSS A Y VSS nfet_03v3 ad=0.233p pd=1.4u as=0.233p ps=1.4u w=0.85u l=0.3u
.ends



****EOF - gf180mcu_osu_sc_gp12t3v3__clkinv_4.spice
****BOF - gf180mcu_osu_sc_gp12t3v3__clkinv_8.spice

* NGSPICE file created from gf180mcu_osu_sc_gp12t3v3__clkinv_8.ext - technology: gf180mcuC

.subckt gf180mcu_osu_sc_gp12t3v3__clkinv_8 A Y VDD VSS
X0 VDD A Y VDD pfet_03v3 ad=0.468p pd=2.25u as=0.468p ps=2.25u w=1.7u l=0.3u
X1 VDD A Y VDD pfet_03v3 ad=0.468p pd=2.25u as=0.468p ps=2.25u w=1.7u l=0.3u
X2 Y A VDD VDD pfet_03v3 ad=0.468p pd=2.25u as=0.468p ps=2.25u w=1.7u l=0.3u
X3 Y A VDD VDD pfet_03v3 ad=0.468p pd=2.25u as=0.468p ps=2.25u w=1.7u l=0.3u
X4 VDD A Y VDD pfet_03v3 ad=0.468p pd=2.25u as=0.468p ps=2.25u w=1.7u l=0.3u
X5 VSS A Y VSS nfet_03v3 ad=0.425p pd=2.7u as=0.233p ps=1.4u w=0.85u l=0.3u
X6 Y A VDD VDD pfet_03v3 ad=0.468p pd=2.25u as=0.85p ps=4.4u w=1.7u l=0.3u
X7 Y A VSS VSS nfet_03v3 ad=0.233p pd=1.4u as=0.233p ps=1.4u w=0.85u l=0.3u
X8 Y A VSS VSS nfet_03v3 ad=0.233p pd=1.4u as=0.233p ps=1.4u w=0.85u l=0.3u
X9 Y A VSS VSS nfet_03v3 ad=0.233p pd=1.4u as=0.425p ps=2.7u w=0.85u l=0.3u
X10 Y A VSS VSS nfet_03v3 ad=0.233p pd=1.4u as=0.233p ps=1.4u w=0.85u l=0.3u
X11 VSS A Y VSS nfet_03v3 ad=0.233p pd=1.4u as=0.233p ps=1.4u w=0.85u l=0.3u
X12 VSS A Y VSS nfet_03v3 ad=0.233p pd=1.4u as=0.233p ps=1.4u w=0.85u l=0.3u
X13 VSS A Y VSS nfet_03v3 ad=0.233p pd=1.4u as=0.233p ps=1.4u w=0.85u l=0.3u
X14 Y A VDD VDD pfet_03v3 ad=0.468p pd=2.25u as=0.468p ps=2.25u w=1.7u l=0.3u
X15 VDD A Y VDD pfet_03v3 ad=0.85p pd=4.4u as=0.468p ps=2.25u w=1.7u l=0.3u
.ends



****EOF - gf180mcu_osu_sc_gp12t3v3__clkinv_8.spice
****BOF - gf180mcu_osu_sc_gp12t3v3__dff_1.spice

* NGSPICE file created from gf180mcu_osu_sc_gp12t3v3__dff_1.ext - technology: gf180mcuC

.subckt gf180mcu_osu_sc_gp12t3v3__dff_1 D CLK Q QN VDD VSS
X0 VDD a_135_70# QN VDD pfet_03v3 ad=0.468p pd=2.25u as=0.85p ps=4.4u w=1.7u l=0.3u
X1 VSS a_9_21# a_75_21# VSS nfet_03v3 ad=0.215p pd=1.4u as=75f ps=0.85u w=0.6u l=0.3u
X2 a_75_111# CLK a_19_16# VDD pfet_03v3 ad=0.213p pd=1.95u as=0.468p ps=2.25u w=1.7u l=0.3u
X3 a_19_16# CLK a_42_111# VDD pfet_03v3 ad=0.468p pd=2.25u as=0.425p ps=2.2u w=1.7u l=0.3u
X4 a_135_70# a_114_21# VDD VDD pfet_03v3 ad=0.85p pd=4.4u as=0.85p ps=4.4u w=1.7u l=0.3u
X5 Q QN VSS VSS nfet_03v3 ad=0.425p pd=2.7u as=0.233p ps=1.4u w=0.85u l=0.3u
X6 a_131_21# CLK a_114_21# VSS nfet_03v3 ad=75f pd=0.85u as=0.215p ps=1.4u w=0.6u l=0.3u
X7 a_42_111# D VDD VDD pfet_03v3 ad=0.425p pd=2.2u as=0.468p ps=2.25u w=1.7u l=0.3u
X8 a_135_70# a_114_21# VSS VSS nfet_03v3 ad=0.425p pd=2.7u as=0.425p ps=2.7u w=0.85u l=0.3u
X9 VDD a_19_16# a_9_21# VDD pfet_03v3 ad=0.468p pd=2.25u as=0.85p ps=4.4u w=1.7u l=0.3u
X10 a_75_21# a_52_16# a_19_16# VSS nfet_03v3 ad=75f pd=0.85u as=0.215p ps=1.4u w=0.6u l=0.3u
X11 VSS a_135_70# a_131_21# VSS nfet_03v3 ad=0.215p pd=1.4u as=75f ps=0.85u w=0.6u l=0.3u
X12 a_19_16# a_52_16# a_42_21# VSS nfet_03v3 ad=0.215p pd=1.4u as=0.213p ps=1.35u w=0.85u l=0.3u
X13 VSS a_19_16# a_9_21# VSS nfet_03v3 ad=0.233p pd=1.4u as=0.425p ps=2.7u w=0.85u l=0.3u
X14 a_52_16# CLK VDD VDD pfet_03v3 ad=0.85p pd=4.4u as=0.468p ps=2.25u w=1.7u l=0.3u
X15 VDD a_135_70# a_131_111# VDD pfet_03v3 ad=0.468p pd=2.25u as=0.213p ps=1.95u w=1.7u l=0.3u
X16 a_131_111# a_52_16# a_114_21# VDD pfet_03v3 ad=0.213p pd=1.95u as=0.468p ps=2.25u w=1.7u l=0.3u
X17 VSS a_135_70# QN VSS nfet_03v3 ad=0.233p pd=1.4u as=0.425p ps=2.7u w=0.85u l=0.3u
X18 a_114_21# a_52_16# a_103_111# VDD pfet_03v3 ad=0.468p pd=2.25u as=0.213p ps=1.95u w=1.7u l=0.3u
X19 a_114_21# CLK a_103_21# VSS nfet_03v3 ad=0.215p pd=1.4u as=0.105p ps=1.1u w=0.85u l=0.3u
X20 a_52_16# CLK VSS VSS nfet_03v3 ad=0.425p pd=2.7u as=0.215p ps=1.4u w=0.85u l=0.3u
X21 a_42_21# D VSS VSS nfet_03v3 ad=0.213p pd=1.35u as=0.233p ps=1.4u w=0.85u l=0.3u
X22 VDD a_9_21# a_75_111# VDD pfet_03v3 ad=0.468p pd=2.25u as=0.213p ps=1.95u w=1.7u l=0.3u
X23 a_103_111# a_9_21# VDD VDD pfet_03v3 ad=0.213p pd=1.95u as=0.468p ps=2.25u w=1.7u l=0.3u
X24 a_103_21# a_9_21# VSS VSS nfet_03v3 ad=0.105p pd=1.1u as=0.215p ps=1.4u w=0.85u l=0.3u
X25 Q QN VDD VDD pfet_03v3 ad=0.85p pd=4.4u as=0.468p ps=2.25u w=1.7u l=0.3u
.ends



****EOF - gf180mcu_osu_sc_gp12t3v3__dff_1.spice
****BOF - gf180mcu_osu_sc_gp12t3v3__dffn_1.spice

* NGSPICE file created from gf180mcu_osu_sc_gp12t3v3__dffn_1.ext - technology: gf180mcuC

.subckt gf180mcu_osu_sc_gp12t3v3__dffn_1 D CLK Q QN VDD VSS
X0 VDD CLK a_52_83# VDD pfet_03v3 ad=0.595p pd=2.4u as=0.85p ps=4.4u w=1.7u l=0.3u